12
benzene 
C 0.0 0.0 0.0
C 0.0                   1.393734280192133       0.0
C 1.206813627138616    -0.6972799388172127      0.0
C 2.4137451058685584   -0.00020447192987266272  0.0
C 2.4139826020165818    1.3935303165671986      0.0
C 1.2070504307495464    2.090535316884558       0.0
H -0.9367195554609414  -0.5406013611755033      0.0
H -0.9365472646723001   1.9345671891820917      0.0
H 1.2067213794206884   -1.7785802560146644      0.0
H 1.207143295008819     3.1720228249054396      0.0
H 3.3506234989601165    1.9342010309452888      0.0
H 3.35037660904556     -0.5409601883159626      0.0
